Version 4
SHEET 1 880 680
WIRE 592 112 512 112
WIRE -32 128 -128 128
WIRE 112 128 48 128
WIRE 192 144 192 128
WIRE 320 144 192 144
WIRE 320 192 320 144
WIRE 336 192 320 192
WIRE 432 192 432 112
WIRE 432 192 416 192
WIRE 448 192 432 192
WIRE 592 208 592 112
WIRE 592 208 512 208
WIRE 224 224 80 224
WIRE 336 224 304 224
WIRE 432 224 416 224
WIRE 448 224 432 224
WIRE 80 240 80 224
WIRE 432 256 432 224
FLAG 80 320 0
FLAG -128 48 0
FLAG 432 336 0
FLAG -32 208 0
SYMBOL OpAmps\\UniversalOpAmp1 480 208 R0
SYMATTR InstName U3
SYMBOL voltage -128 144 R180
WINDOW 0 24 96 Left 2
WINDOW 3 24 16 Left 2
WINDOW 123 0 0 Left 0
WINDOW 39 0 0 Left 0
SYMATTR InstName S+N
SYMATTR Value SINE(5 15 1)
SYMBOL voltage 80 224 R0
WINDOW 123 0 0 Left 0
WINDOW 39 0 0 Left 0
SYMATTR InstName N
SYMATTR Value 5
SYMBOL res -48 144 R270
WINDOW 0 32 56 VTop 2
WINDOW 3 0 56 VBottom 2
SYMATTR InstName Transducer
SYMATTR Value 10e+3
SYMBOL res 208 112 R90
WINDOW 0 0 56 VBottom 2
WINDOW 3 32 56 VTop 2
SYMATTR InstName RWire1
SYMATTR Value 10e+4
SYMBOL res 320 208 R90
WINDOW 0 0 56 VBottom 2
WINDOW 3 32 56 VTop 2
SYMATTR InstName RWire2
SYMATTR Value 10e+4
SYMBOL res 432 176 R90
WINDOW 0 0 56 VBottom 2
WINDOW 3 32 56 VTop 2
SYMATTR InstName R3
SYMATTR Value 10e+5
SYMBOL res 432 208 R90
WINDOW 0 0 56 VBottom 2
WINDOW 3 32 56 VTop 2
SYMATTR InstName R4
SYMATTR Value 10e+5
SYMBOL res 416 240 R0
SYMATTR InstName R6
SYMATTR Value 10e+6
SYMBOL res 528 96 R90
WINDOW 0 0 56 VBottom 2
WINDOW 3 32 56 VTop 2
SYMATTR InstName R5
SYMATTR Value 10e+6
TEXT 0 368 Left 2 !.tran 5
