Version 4
SHEET 1 1676 680
WIRE 352 -128 128 -128
WIRE 128 -48 128 -128
WIRE 160 -48 128 -48
WIRE 352 -48 352 -128
WIRE 464 -48 352 -48
WIRE 560 -48 464 -48
WIRE 272 -32 224 -32
WIRE 352 -32 352 -48
WIRE 352 -32 336 -32
WIRE 160 -16 48 -16
WIRE 464 -16 464 -48
WIRE 560 0 560 -48
WIRE 48 64 48 -16
WIRE 48 176 48 144
FLAG 48 176 0
FLAG 560 64 0
FLAG 464 64 0
SYMBOL voltage 48 48 R0
WINDOW 123 0 0 Left 0
WINDOW 39 0 0 Left 0
SYMATTR InstName V1
SYMATTR Value SINE(0 5 1)
SYMBOL OpAmps\\UniversalOpAmp 192 -32 R0
SYMATTR InstName U1
SYMBOL cap 544 0 R0
SYMATTR InstName C1
SYMATTR Value 1milli
SYMBOL res 448 -32 R0
SYMATTR InstName R1
SYMATTR Value 1Meg
SYMBOL diode 272 -16 R270
WINDOW 0 32 32 VTop 2
WINDOW 3 0 32 VBottom 2
SYMATTR InstName D1
SYMATTR Value MyIdealDiode
TEXT 16 200 Left 2 !.tran 5
TEXT -48 264 Left 2 !.model MyIdealDiode D(Roff=1T Ron=0 Vfwd=0.7)
